6
 0.000000
  C -1.294919 0.542959 5.001299
  Br 0.694616 0.543808 4.999562
  H -1.636980 0.598072 6.030309
  H -1.637355 -0.369230 4.522183
  H -1.633737 1.408958 4.446127
  Cl -4.352783 0.570770 5.000338
6
 0.000000
  C -1.515108 0.536986 0.005389
  Br 0.921841 0.546011 -0.004956
  H -1.598352 0.608067 1.086686
  H -1.600902 -0.415977 -0.510068
  H -1.592975 1.438888 -0.572824
  Cl -4.106575 0.572011 -0.004277
